LTspice 24.1.10 for Windows
Circuit: C:\Nerd Projects\ChuaEncrypt\Simulations\Chua.net
Start Time: Sun Dec 14 15:52:53 2025
solver = Normal
Maximum thread count: 20
tnom = 27
temp = 27
method = trap
Direct Newton iteration failed to find .op point.  (Use ".option noopiter" to skip.)
Starting Gmin stepping
Gmin = 10
Gmin = 1.07374
Gmin = 0.115292
Gmin = 0.0123794
Gmin = 0.00132923
Gmin = 0.000142725
Gmin = 1.5325e-05
Gmin = 1.6455e-06
Gmin = 1.76685e-07
Gmin = 1.89714e-08
Gmin = 2.03704e-09
Gmin = 2.18725e-10
Gmin = 2.34854e-11
Gmin = 2.52173e-12
Gmin = 2.70769e-13
Gmin = 0
Gmin stepping succeeded in finding the operating point.

.step x=100
.step x=400
.step x=700
.step x=1000
.step x=1300
.step x=1600
.step x=1900
.step x=2200
.step x=2500
Total elapsed time: 1185.498 seconds.

Files loaded:
C:\Nerd Projects\ChuaEncrypt\Simulations\Chua.net
C:\Users\Justin Nguyen\AppData\Local\LTspice\lib\sub\ADI.lib

